# generated using pymatgen
data_P72S211
_symmetry_space_group_name_H-M   'P 1'
_cell_length_a   12.37767600
_cell_length_b   37.88362722
_cell_length_c   25.34626570
_cell_angle_alpha   107.48331704
_cell_angle_beta   103.55243778
_cell_angle_gamma   101.86041383
_symmetry_Int_Tables_number   1
_chemical_formula_structural   P72S211
_chemical_formula_sum   'P72 S211'
_cell_volume   10521.20717660
_cell_formula_units_Z   1
loop_
 _symmetry_equiv_pos_site_id
 _symmetry_equiv_pos_as_xyz
  1  'x, y, z'
loop_
 _atom_type_symbol
 _atom_type_oxidation_number
  P5+  5.0
  S2-  -2.0
loop_
 _atom_site_type_symbol
 _atom_site_label
 _atom_site_symmetry_multiplicity
 _atom_site_fract_x
 _atom_site_fract_y
 _atom_site_fract_z
 _atom_site_occupancy
  P5+  P14  1  0.17646317  0.18126115  0.20567292  1.0
  P5+  P14  1  0.23919876  0.15666184  0.63796164  1.0
  P5+  P14  1  0.12714498  0.68524452  0.01753830  1.0
  P5+  P14  1  0.41958365  0.43666356  0.75223565  1.0
  P5+  P14  1  0.28098595  0.71342045  0.22296581  1.0
  P5+  P14  1  0.26839170  0.82133505  0.64394831  1.0
  P5+  P14  1  0.80040422  0.16568285  0.14822637  1.0
  P5+  P14  1  0.78301504  0.29427373  0.73558877  1.0
  P5+  P14  1  0.86103650  0.49876055  0.10087573  1.0
  P5+  P14  1  0.70786004  0.48317999  0.63502952  1.0
  P5+  P14  1  0.75688460  0.82362789  0.19525395  1.0
  P5+  P14  1  0.61192883  0.74300564  0.84018096  1.0
  P5+  P15  1  0.51176440  0.22986704  0.24479667  1.0
  P5+  P15  1  0.17869819  0.21446990  0.73827587  1.0
  P5+  P15  1  0.47625867  0.59106993  0.18608181  1.0
  P5+  P15  1  0.44131201  0.51437116  0.70274535  1.0
  P5+  P15  1  0.55453319  0.90178945  0.47113426  1.0
  P5+  P15  1  0.25871016  0.73974423  0.84591620  1.0
  P5+  P15  1  0.96410046  0.22699179  0.24904213  1.0
  P5+  P15  1  0.19089688  0.42275246  0.78193960  1.0
  P5+  P15  1  0.02813653  0.79316572  0.26635131  1.0
  P5+  P15  1  0.15989188  0.68045633  0.59819510  1.0
  P5+  P15  1  0.86866226  0.92423473  0.22854069  1.0
  P5+  P15  1  0.14623691  0.80812452  0.92857940  1.0
  P5+  P16  1  0.28143781  0.07075245  0.52098914  1.0
  P5+  P16  1  0.58701615  0.95591485  0.08040859  1.0
  P5+  P16  1  0.41570213  0.46524145  0.61366284  1.0
  P5+  P16  1  0.25567629  0.62873125  0.76743126  1.0
  P5+  P16  1  0.45948484  0.68809451  0.45786941  1.0
  P5+  P16  1  0.46743939  0.94823403  0.78175277  1.0
  P5+  P16  1  0.83502470  0.03083755  0.63543840  1.0
  P5+  P16  1  0.12132436  0.04308598  0.81674165  1.0
  P5+  P16  1  0.79007573  0.40314034  0.38963486  1.0
  P5+  P16  1  0.91706292  0.48431743  0.79367807  1.0
  P5+  P16  1  0.86926302  0.78385974  0.31959162  1.0
  P5+  P16  1  0.79731372  0.67155734  0.97281491  1.0
  P5+  P17  1  0.98229092  0.21939606  0.06516643  1.0
  P5+  P17  1  0.09717570  0.30043374  0.57271900  1.0
  P5+  P17  1  0.14289001  0.66739499  0.93286261  1.0
  P5+  P17  1  0.94294310  0.54693216  0.65255572  1.0
  P5+  P17  1  0.21483415  0.05775181  0.95964139  1.0
  P5+  P17  1  0.25825865  0.71832307  0.71239937  1.0
  P5+  P17  1  0.53962019  0.40949640  0.80737156  1.0
  P5+  P17  1  0.41800021  0.04070599  0.70590449  1.0
  P5+  P17  1  0.56399399  0.61007820  0.00799317  1.0
  P5+  P17  1  0.59701984  0.57410390  0.57376832  1.0
  P5+  P17  1  0.70450206  0.14287219  0.75091395  1.0
  P5+  P17  1  0.26562362  0.02900754  0.70062333  1.0
  P5+  P18  1  0.26159161  0.21204014  0.36061227  1.0
  P5+  P18  1  0.08251355  0.29519977  0.64074566  1.0
  P5+  P18  1  0.33549822  0.57722947  0.36466760  1.0
  P5+  P18  1  0.35927584  0.53813073  0.97774420  1.0
  P5+  P18  1  0.03669425  0.94327867  0.69112013  1.0
  P5+  P18  1  0.28590064  0.85857868  0.95583469  1.0
  P5+  P18  1  0.67428357  0.26346506  0.31129692  1.0
  P5+  P18  1  0.95233431  0.98487816  0.72044989  1.0
  P5+  P18  1  0.10988448  0.26720178  0.67727271  1.0
  P5+  P18  1  0.83261040  0.51406270  0.93861822  1.0
  P5+  P18  1  0.64688753  0.90449508  0.19511282  1.0
  P5+  P18  1  0.60187819  0.87917003  0.62810222  1.0
  P5+  P19  1  0.01336213  0.90498303  0.26834104  1.0
  P5+  P19  1  0.11006303  0.06731260  0.64150633  1.0
  P5+  P19  1  0.22469231  0.61798402  0.27337059  1.0
  P5+  P19  1  0.11050547  0.39855687  0.75009424  1.0
  P5+  P19  1  0.16675264  0.65710189  0.46315271  1.0
  P5+  P19  1  0.94303412  0.75759059  0.73767968  1.0
  P5+  P19  1  0.46433335  0.98077857  0.11566587  1.0
  P5+  P19  1  0.39129699  0.09962664  0.70137930  1.0
  P5+  P19  1  0.69414121  0.31803855  0.30171106  1.0
  P5+  P19  1  0.70665144  0.21528596  0.78437749  1.0
  P5+  P19  1  0.65291448  0.74206513  0.90641942  1.0
  P5+  P19  1  0.39513889  0.55770339  0.81991209  1.0
  S2-  S20  1  0.46844598  0.27329375  0.16691658  1.0
  S2-  S20  1  0.45058797  0.27170451  0.64476020  1.0
  S2-  S20  1  0.43956598  0.59035234  0.14515209  1.0
  S2-  S20  1  0.44983980  0.60872858  0.64716377  1.0
  S2-  S20  1  0.39835989  0.93575303  0.13847423  1.0
  S2-  S20  1  0.41550135  0.94548310  0.67613679  1.0
  S2-  S20  1  0.93346708  0.27147873  0.15230252  1.0
  S2-  S20  1  0.94265573  0.27790986  0.67184089  1.0
  S2-  S20  1  0.93261732  0.60586032  0.17152276  1.0
  S2-  S20  1  0.97761345  0.61275604  0.68075609  1.0
  S2-  S20  1  0.99569684  0.94774993  0.16909506  1.0
  S2-  S20  1  0.94519331  0.93970423  0.65166209  1.0
  S2-  S21  1  0.22374630  0.10845717  0.67074491  1.0
  S2-  S21  1  0.08575145  0.49901649  0.64309256  1.0
  S2-  S21  1  0.13292608  0.83090049  0.16572062  1.0
  S2-  S21  1  0.04473920  0.84574797  0.66159486  1.0
  S2-  S21  1  0.60875063  0.14986301  0.65250353  1.0
  S2-  S21  1  0.58098572  0.47869661  0.15061139  1.0
  S2-  S21  1  0.62309606  0.81746374  0.14458127  1.0
  S2-  S21  1  0.64607020  0.84472444  0.66727066  1.0
  S2-  S22  1  0.33015069  0.20778080  0.20898493  1.0
  S2-  S22  1  0.41729976  0.20366404  0.71945553  1.0
  S2-  S22  1  0.40512366  0.53327462  0.21633848  1.0
  S2-  S22  1  0.19195971  0.61735456  0.52595974  1.0
  S2-  S22  1  0.86882518  0.19969015  0.21575584  1.0
  S2-  S22  1  0.68354792  0.31714611  0.73157917  1.0
  S2-  S22  1  0.90807650  0.54207975  0.69951974  1.0
  S2-  S22  1  0.90444864  0.86597175  0.20580979  1.0
  S2-  S22  1  0.90895352  0.80156619  0.71271390  1.0
  S2-  S23  1  0.22514544  0.05536856  0.27078944  1.0
  S2-  S23  1  0.22000029  0.05372338  0.77194835  1.0
  S2-  S23  1  0.21853572  0.39196000  0.25454915  1.0
  S2-  S23  1  0.21082227  0.38567946  0.76290697  1.0
  S2-  S23  1  0.24153488  0.72358925  0.25296629  1.0
  S2-  S23  1  0.25681088  0.74125751  0.77334574  1.0
  S2-  S23  1  0.68071546  0.05472639  0.25439602  1.0
  S2-  S23  1  0.72717413  0.06147276  0.77909091  1.0
  S2-  S23  1  0.73800773  0.38542719  0.27312949  1.0
  S2-  S23  1  0.67919123  0.38035715  0.74364213  1.0
  S2-  S23  1  0.72516524  0.72432449  0.25845899  1.0
  S2-  S23  1  0.70698594  0.72839546  0.75779539  1.0
  S2-  S24  1  0.28772762  0.16533636  0.06727853  1.0
  S2-  S24  1  0.28998574  0.16950552  0.57074048  1.0
  S2-  S24  1  0.30664238  0.49861404  0.09282991  1.0
  S2-  S24  1  0.29606399  0.49942547  0.58115100  1.0
  S2-  S24  1  0.27752826  0.82166357  0.05539642  1.0
  S2-  S24  1  0.26193308  0.81894611  0.56176512  1.0
  S2-  S24  1  0.76671851  0.16223854  0.06114506  1.0
  S2-  S24  1  0.78418249  0.16537975  0.56001821  1.0
  S2-  S24  1  0.80535578  0.50812128  0.07562730  1.0
  S2-  S24  1  0.75662091  0.48852883  0.55576660  1.0
  S2-  S25  1  0.19656700  0.16416953  0.43149330  1.0
  S2-  S25  1  0.21506059  0.50777257  0.45043565  1.0
  S2-  S25  1  0.20399638  0.49581366  0.92503609  1.0
  S2-  S25  1  0.24356801  0.84534154  0.44769636  1.0
  S2-  S25  1  0.20110479  0.84463602  0.94881612  1.0
  S2-  S25  1  0.70144014  0.17242782  0.45784523  1.0
  S2-  S25  1  0.68740451  0.49129437  0.44219754  1.0
  S2-  S25  1  0.74388698  0.50214865  0.93582957  1.0
  S2-  S25  1  0.68925294  0.84022957  0.44684650  1.0
  S2-  S25  1  0.71238916  0.84708372  0.94426069  1.0
  S2-  S26  1  0.28864315  0.27587054  0.23663576  1.0
  S2-  S26  1  0.22755478  0.27515429  0.74729187  1.0
  S2-  S26  1  0.25150509  0.60533877  0.23920310  1.0
  S2-  S26  1  0.29340357  0.61941506  0.73219508  1.0
  S2-  S26  1  0.33247875  0.93617620  0.24481886  1.0
  S2-  S26  1  0.26482399  0.93642937  0.73098290  1.0
  S2-  S26  1  0.77353108  0.27442984  0.24954986  1.0
  S2-  S26  1  0.76092307  0.26493115  0.71532753  1.0
  S2-  S26  1  0.78155968  0.60048596  0.23985312  1.0
  S2-  S26  1  0.78135186  0.60475956  0.74854591  1.0
  S2-  S26  1  0.73747785  0.94932716  0.23754327  1.0
  S2-  S27  1  0.28726616  0.49314625  0.80396539  1.0
  S2-  S27  1  0.27520555  0.73301310  0.59580396  1.0
  S2-  S27  1  0.08270416  0.95294136  0.30357822  1.0
  S2-  S27  1  0.06123821  0.70939822  0.96581762  1.0
  S2-  S27  1  0.33688272  0.08086049  0.93450167  1.0
  S2-  S27  1  0.49151749  0.65461878  0.98051309  1.0
  S2-  S27  1  0.60832171  0.87687886  0.54899952  1.0
  S2-  S27  1  0.54750236  0.94741521  0.81131494  1.0
  S2-  S28  1  0.23055776  0.33698672  0.11414323  1.0
  S2-  S28  1  0.17877201  0.32500785  0.60461548  1.0
  S2-  S28  1  0.20500262  0.66844424  0.13101618  1.0
  S2-  S28  1  0.20660898  0.67401996  0.63101983  1.0
  S2-  S28  1  0.19105384  0.00343494  0.12507337  1.0
  S2-  S28  1  0.18390742  0.00546688  0.61794128  1.0
  S2-  S28  1  0.73767819  0.32004835  0.09876646  1.0
  S2-  S28  1  0.63583333  0.32870339  0.59962282  1.0
  S2-  S28  1  0.66724972  0.65635752  0.08070664  1.0
  S2-  S28  1  0.70799538  0.65281066  0.63591781  1.0
  S2-  S28  1  0.67164094  0.98379664  0.08920199  1.0
  S2-  S28  1  0.65046765  0.99459675  0.59153881  1.0
  S2-  S29  1  0.12880460  0.04904932  0.49263264  1.0
  S2-  S29  1  0.12184264  0.05168736  0.99533789  1.0
  S2-  S29  1  0.14937331  0.41039375  0.98633166  1.0
  S2-  S29  1  0.11683674  0.73174762  0.46380605  1.0
  S2-  S29  1  0.14478319  0.72286034  0.96997517  1.0
  S2-  S29  1  0.56352756  0.04559036  0.44017979  1.0
  S2-  S29  1  0.58855713  0.92963411  0.11854423  1.0
  S2-  S29  1  0.65024817  0.39920774  0.50135383  1.0
  S2-  S29  1  0.59042088  0.36455542  0.95551979  1.0
  S2-  S29  1  0.59224845  0.71033181  0.46799408  1.0
  S2-  S30  1  0.31261120  0.09614350  0.17171154  1.0
  S2-  S30  1  0.30940129  0.11278855  0.64892867  1.0
  S2-  S30  1  0.25083321  0.42964693  0.16359473  1.0
  S2-  S30  1  0.31266589  0.43155957  0.64466877  1.0
  S2-  S30  1  0.29373088  0.77451798  0.13065529  1.0
  S2-  S30  1  0.28402201  0.79408984  0.65405918  1.0
  S2-  S30  1  0.77228474  0.10049696  0.65456508  1.0
  S2-  S30  1  0.78236408  0.43733636  0.13489408  1.0
  S2-  S30  1  0.80779986  0.42982672  0.65583795  1.0
  S2-  S30  1  0.73705614  0.78327294  0.16229499  1.0
  S2-  S30  1  0.81130120  0.77572072  0.67466395  1.0
  S2-  S31  1  0.74252406  0.41059667  0.32752115  1.0
  S2-  S31  1  0.44730909  0.71692852  0.69008330  1.0
  S2-  S31  1  0.99995168  0.84825441  0.26583057  1.0
  S2-  S31  1  0.15641733  0.05870933  0.54639383  1.0
  S2-  S31  1  0.94336635  0.36929921  0.19406480  1.0
  S2-  S31  1  0.92144946  0.38854772  0.69748785  1.0
  S2-  S31  1  0.94724338  0.71765258  0.19272769  1.0
  S2-  S32  1  0.25438558  0.28967567  0.38013404  1.0
  S2-  S32  1  0.97302213  0.31515301  0.56703295  1.0
  S2-  S32  1  0.25587765  0.66811698  0.24656534  1.0
  S2-  S32  1  0.12127838  0.80393836  0.28980693  1.0
  S2-  S32  1  0.12982891  0.80717628  0.76866218  1.0
  S2-  S32  1  0.60729139  0.20838509  0.28369943  1.0
  S2-  S32  1  0.62643031  0.12843300  0.78165766  1.0
  S2-  S33  1  0.40353632  0.06151548  0.04122987  1.0
  S2-  S33  1  0.43523939  0.05767805  0.54811948  1.0
  S2-  S33  1  0.43013042  0.38943997  0.06236262  1.0
  S2-  S33  1  0.92789320  0.04727754  0.06004864  1.0
  S2-  S33  1  0.88649740  0.06907432  0.57597743  1.0
  S2-  S33  1  0.91889221  0.37346081  0.05526714  1.0
  S2-  S33  1  0.96748770  0.38958368  0.55506873  1.0
  S2-  S33  1  0.88663809  0.72826633  0.06365146  1.0
  S2-  S33  1  0.95565559  0.75287646  0.56796915  1.0
  S2-  S34  1  0.27875170  0.01108418  0.36934102  1.0
  S2-  S34  1  0.31741022  0.02372378  0.91189012  1.0
  S2-  S34  1  0.33670058  0.35876509  0.40781343  1.0
  S2-  S34  1  0.35054178  0.34405519  0.91049324  1.0
  S2-  S34  1  0.28398288  0.67207188  0.37944978  1.0
  S2-  S34  1  0.31873727  0.67965914  0.89023649  1.0
  S2-  S34  1  0.87132804  0.01201588  0.40963880  1.0
  S2-  S34  1  0.83082494  0.00238856  0.90193166  1.0
  S2-  S34  1  0.81231820  0.35648573  0.39467242  1.0
  S2-  S34  1  0.82221195  0.34579456  0.90820724  1.0
  S2-  S34  1  0.79662791  0.66847620  0.38911474  1.0
  S2-  S35  1  0.40931804  0.28064371  0.03590567  1.0
  S2-  S35  1  0.39146224  0.26209349  0.51903809  1.0
  S2-  S35  1  0.46366973  0.62675321  0.04343338  1.0
  S2-  S35  1  0.36343378  0.95344240  0.03802022  1.0
  S2-  S35  1  0.89339918  0.28464922  0.04432707  1.0
  S2-  S35  1  0.86766682  0.27269116  0.52634317  1.0
  S2-  S35  1  0.91666637  0.62417530  0.03864608  1.0
  S2-  S35  1  0.90119109  0.53005201  0.73004786  1.0
  S2-  S35  1  0.89493051  0.95293393  0.02309334  1.0
  S2-  S35  1  0.94409158  0.93210595  0.51715362  1.0
  S2-  S36  1  0.01725238  0.05510508  0.32777371  1.0
  S2-  S36  1  0.01885483  0.06774154  0.83476639  1.0
  S2-  S36  1  0.04677403  0.39074754  0.33162219  1.0
  S2-  S36  1  0.09493942  0.40255528  0.82850128  1.0
  S2-  S36  1  0.00495926  0.73692938  0.83463077  1.0
  S2-  S36  1  0.51308762  0.07028991  0.34372793  1.0
  S2-  S36  1  0.55863803  0.06823583  0.83051145  1.0
  S2-  S36  1  0.51768520  0.40827777  0.32733194  1.0
  S2-  S36  1  0.50765748  0.38563739  0.85764690  1.0
  S2-  S36  1  0.56587801  0.73625801  0.34977546  1.0
  S2-  S37  1  0.41757195  0.11119469  0.93918719  1.0
  S2-  S37  1  0.14085710  0.03350732  0.72530766  1.0
  S2-  S37  1  0.85245129  0.80465109  0.25347460  1.0
  S2-  S38  1  0.34457746  0.16050418  0.33413821  1.0
  S2-  S38  1  0.40299255  0.16693455  0.85794840  1.0
  S2-  S38  1  0.40009979  0.64038551  0.38655399  1.0
  S2-  S38  1  0.41183094  0.53546752  0.05427110  1.0
  S2-  S38  1  0.42118783  0.94966444  0.01553222  1.0
  S2-  S38  1  0.90494296  0.52091954  0.02857646  1.0
  S2-  S38  1  0.91332593  0.84135360  0.34348343  1.0
  S2-  S38  1  0.89342844  0.82670902  0.83538418  1.0
  S2-  S39  1  0.16718199  0.21252285  0.33705360  1.0
  S2-  S39  1  0.17030018  0.21808793  0.84882385  1.0
  S2-  S39  1  0.22181233  0.55159711  0.36517191  1.0
  S2-  S39  1  0.26213950  0.55643784  0.82274333  1.0
  S2-  S39  1  0.21901415  0.86959443  0.35543780  1.0
  S2-  S39  1  0.75554335  0.23830678  0.36111316  1.0
  S2-  S39  1  0.70223287  0.55229636  0.33678046  1.0
  S2-  S39  1  0.74473503  0.56240494  0.85407188  1.0
  S2-  S39  1  0.71716740  0.91240896  0.36777877  1.0
  S2-  S39  1  0.67089547  0.88505438  0.85043012  1.0
  S2-  S40  1  0.06895481  0.27750490  0.46013399  1.0
  S2-  S40  1  0.00083875  0.27350812  0.93847648  1.0
  S2-  S40  1  0.07822747  0.61040469  0.45752920  1.0
  S2-  S40  1  0.08679297  0.60453001  0.95557678  1.0
  S2-  S40  1  0.08558667  0.93910805  0.43297768  1.0
  S2-  S40  1  0.03685224  0.92953729  0.94192967  1.0
  S2-  S40  1  0.57268152  0.26157437  0.44979857  1.0
  S2-  S40  1  0.61576897  0.26924286  0.92992123  1.0
  S2-  S40  1  0.57511710  0.61521182  0.45804181  1.0
  S2-  S40  1  0.57498017  0.62100988  0.97009555  1.0
  S2-  S40  1  0.56210547  0.93465031  0.43680439  1.0
  S2-  S40  1  0.75165247  0.03167586  0.71103295  1.0
  S2-  S41  1  0.86421062  0.20335183  0.12163163  1.0
  S2-  S41  1  0.06746737  0.34973729  0.63710984  1.0
  S2-  S41  1  0.19798929  0.71388154  0.88049346  1.0
  S2-  S41  1  0.06538188  0.55602941  0.53607904  1.0
  S2-  S41  1  0.28115769  0.66332693  0.77277004  1.0
  S2-  S41  1  0.75857001  0.20078014  0.93842271  1.0
  S2-  S41  1  0.51947963  0.99570592  0.73616352  1.0
  S2-  S41  1  0.69720303  0.60654272  0.95852349  1.0
  S2-  S41  1  0.60409687  0.55012001  0.59808331  1.0
  S2-  S41  1  0.56659516  0.90066417  0.03124523  1.0
  S2-  S41  1  0.59273915  0.90478268  0.54710814  1.0
