# generated using pymatgen
data_P108S391
_symmetry_space_group_name_H-M   'P 1'
_cell_length_a   36.05610000
_cell_length_b   24.65550000
_cell_length_c   18.35970000
_cell_angle_alpha   90.00000000
_cell_angle_beta   90.00000000
_cell_angle_gamma   90.00000000
_symmetry_Int_Tables_number   1
_chemical_formula_structural   P108S391
_chemical_formula_sum   'P108 S391'
_cell_volume   16321.42765203
_cell_formula_units_Z   1
loop_
 _symmetry_equiv_pos_site_id
 _symmetry_equiv_pos_as_xyz
  1  'x, y, z'
loop_
 _atom_site_type_symbol
 _atom_site_label
 _atom_site_symmetry_multiplicity
 _atom_site_fract_x
 _atom_site_fract_y
 _atom_site_fract_z
 _atom_site_occupancy
  P  P0  1  0.10714849  0.32919273  0.41448349  1.0
  P  P0  1  0.31820562  0.36575303  0.39232924  1.0
  P  P0  1  0.15787000  0.30804686  0.81633817  1.0
  P  P0  1  0.30796411  0.57616945  0.19398516  1.0
  P  P0  1  0.44687619  0.73032310  0.52498395  1.0
  P  P0  1  0.31326814  0.55777004  0.90850328  1.0
  P  P0  1  0.35146261  0.92157498  0.21521643  1.0
  P  P0  1  0.30959388  0.92003187  0.51653392  1.0
  P  P0  1  0.48256290  0.98678176  0.70171345  1.0
  P  P0  1  0.62993556  0.24962417  0.22656928  1.0
  P  P0  1  0.64557889  0.25374303  0.51983124  1.0
  P  P0  1  0.63812828  0.25240392  0.86784045  1.0
  P  P0  1  0.62860846  0.59146630  0.17602923  1.0
  P  P0  1  0.67578891  0.36216883  0.36781694  1.0
  P  P0  1  0.53935918  0.33282851  0.84501988  1.0
  P  P0  1  0.64950790  0.92353414  0.19964308  1.0
  P  P0  1  0.48206516  0.76382197  0.54427348  1.0
  P  P0  1  0.64230886  0.92544523  0.87088247  1.0
  P  P0  1  0.98163125  0.24681937  0.19580232  1.0
  P  P0  1  0.96234105  0.23444944  0.50030772  1.0
  P  P0  1  0.98107526  0.17683041  0.71829438  1.0
  P  P0  1  0.88168208  0.63443568  0.96880403  1.0
  P  P0  1  0.97231191  0.57481455  0.54497194  1.0
  P  P0  1  0.08022375  0.38496398  0.80838793  1.0
  P  P0  1  0.97139208  0.93036889  0.18641092  1.0
  P  P0  1  0.97073413  0.90259178  0.50212057  1.0
  P  P0  1  0.98292613  0.89447199  0.89854995  1.0
  P  P1  1  0.00014930  0.40172458  0.17211901  1.0
  P  P1  1  0.15982675  0.46407081  0.51962397  1.0
  P  P1  1  0.22178331  0.24959011  0.89152619  1.0
  P  P1  1  0.13032318  0.57135703  0.32203132  1.0
  P  P1  1  0.13242928  0.56006749  0.64598440  1.0
  P  P1  1  0.06617946  0.54186247  0.97956100  1.0
  P  P1  1  0.12436381  0.91503294  0.30356493  1.0
  P  P1  1  0.08424672  0.71475511  0.60013533  1.0
  P  P1  1  0.00325749  0.91861929  0.95751890  1.0
  P  P1  1  0.48252700  0.24908567  0.29670633  1.0
  P  P1  1  0.32203621  0.25574267  0.80847039  1.0
  P  P1  1  0.48093564  0.25467204  0.96819369  1.0
  P  P1  1  0.47423807  0.58941275  0.28498371  1.0
  P  P1  1  0.48046359  0.57967203  0.63500118  1.0
  P  P1  1  0.47465283  0.59244745  0.96430210  1.0
  P  P1  1  0.42310300  0.90984732  0.29918095  1.0
  P  P1  1  0.55065211  0.85536250  0.69093977  1.0
  P  P1  1  0.37394406  0.96631376  0.86906140  1.0
  P  P1  1  0.79811861  0.24569133  0.31357754  1.0
  P  P1  1  0.81442233  0.26975295  0.61438606  1.0
  P  P1  1  0.89225947  0.20281923  0.77730706  1.0
  P  P1  1  0.80684912  0.58330798  0.31294034  1.0
  P  P1  1  0.79780748  0.56586520  0.60823958  1.0
  P  P1  1  0.95580810  0.45331614  0.12123015  1.0
  P  P1  1  0.76311692  0.06596577  0.29724989  1.0
  P  P1  1  0.83182296  0.73439410  0.83376061  1.0
  P  P1  1  0.93671117  0.91876877  0.96962616  1.0
  P  P2  1  0.19059291  0.09186741  0.04401438  1.0
  P  P2  1  0.19666978  0.08896242  0.39510605  1.0
  P  P2  1  0.30265985  0.99429834  0.81910371  1.0
  P  P2  1  0.21196262  0.41349701  0.05538337  1.0
  P  P2  1  0.19656903  0.40838185  0.34431195  1.0
  P  P2  1  0.43056974  0.27051074  0.74066416  1.0
  P  P2  1  0.21166110  0.53455470  0.84487035  1.0
  P  P2  1  0.16129869  0.53420352  0.45429650  1.0
  P  P2  1  0.19637403  0.75949173  0.69506190  1.0
  P  P2  1  0.50878079  0.07421757  0.86150502  1.0
  P  P2  1  0.52471126  0.08773409  0.36873112  1.0
  P  P2  1  0.53394575  0.07030669  0.67929476  1.0
  P  P2  1  0.52324007  0.41376004  0.02859130  1.0
  P  P2  1  0.53499156  0.40634728  0.33433913  1.0
  P  P2  1  0.54703658  0.40289952  0.70749898  1.0
  P  P2  1  0.52936015  0.75305780  0.02714133  1.0
  P  P2  1  0.52589797  0.75564546  0.35333343  1.0
  P  P2  1  0.45651295  0.71407337  0.77162024  1.0
  P  P2  1  0.85821388  0.08045745  0.00775601  1.0
  P  P2  1  0.85949611  0.07072062  0.38195572  1.0
  P  P2  1  0.93851136  0.19345923  0.72656771  1.0
  P  P2  1  0.94806582  0.49753597  0.00567627  1.0
  P  P2  1  0.79133697  0.55448116  0.36350089  1.0
  P  P2  1  0.05806897  0.33854205  0.45681358  1.0
  P  P2  1  0.86665806  0.75065691  0.99771506  1.0
  P  P2  1  0.85705397  0.71485647  0.36529206  1.0
  P  P2  1  0.86479049  0.74034761  0.70265885  1.0
  P  P3  1  0.01842914  0.07157307  0.14631695  1.0
  P  P3  1  0.92487246  0.15359086  0.71620009  1.0
  P  P3  1  0.02568090  0.07886507  0.79461816  1.0
  P  P3  1  0.03161649  0.40902624  0.13975632  1.0
  P  P3  1  0.06829253  0.60661422  0.55728145  1.0
  P  P3  1  0.15379996  0.51339115  0.79446819  1.0
  P  P3  1  0.17131433  0.74843636  0.07640955  1.0
  P  P3  1  0.02488068  0.73575115  0.49256910  1.0
  P  P3  1  0.02646536  0.76069104  0.81862109  1.0
  P  P3  1  0.36218463  0.08121234  0.13310178  1.0
  P  P3  1  0.44189213  0.09383525  0.64883710  1.0
  P  P3  1  0.45768594  0.19358260  0.80855448  1.0
  P  P3  1  0.36217591  0.39281611  0.17316981  1.0
  P  P3  1  0.35250664  0.41617888  0.49192217  1.0
  P  P3  1  0.35525364  0.38864821  0.79889619  1.0
  P  P3  1  0.33307445  0.47995234  0.29122906  1.0
  P  P3  1  0.36415643  0.76389945  0.45451894  1.0
  P  P3  1  0.26014808  0.74505113  0.95371265  1.0
  P  P3  1  0.67878196  0.31227225  0.32354143  1.0
  P  P3  1  0.52866653  0.02095126  0.63009571  1.0
  P  P3  1  0.53173093  0.19611680  0.76429804  1.0
  P  P3  1  0.73436894  0.26307562  0.23341069  1.0
  P  P3  1  0.69651586  0.41954994  0.46540151  1.0
  P  P3  1  0.68908963  0.43247017  0.79013834  1.0
  P  P3  1  0.68471790  0.75827724  0.15841885  1.0
  P  P3  1  0.75769546  0.61332488  0.43317866  1.0
  P  P3  1  0.60323408  0.80470643  0.75632128  1.0
  S  S4  1  0.28685155  0.26595375  0.28199919  1.0
  S  S4  1  0.27761933  0.25342130  0.62067523  1.0
  S  S4  1  0.28713908  0.26490086  0.95960118  1.0
  S  S4  1  0.28212110  0.60104482  0.33186701  1.0
  S  S4  1  0.28800534  0.59055398  0.62184983  1.0
  S  S4  1  0.28478875  0.59010855  0.96569586  1.0
  S  S4  1  0.27685124  0.90107626  0.27407193  1.0
  S  S4  1  0.26559289  0.92371713  0.63821343  1.0
  S  S4  1  0.27777451  0.91263362  0.97257245  1.0
  S  S4  1  0.61376411  0.23368859  0.31738521  1.0
  S  S4  1  0.61766377  0.25323537  0.64948589  1.0
  S  S4  1  0.60836351  0.26476828  0.96684501  1.0
  S  S4  1  0.62252680  0.59226987  0.28549250  1.0
  S  S4  1  0.61931765  0.58730334  0.63629530  1.0
  S  S4  1  0.61434813  0.58228821  0.98241279  1.0
  S  S4  1  0.61994176  0.91703752  0.27808823  1.0
  S  S4  1  0.61924728  0.92547136  0.67338901  1.0
  S  S4  1  0.62408133  0.89355811  0.97041488  1.0
  S  S4  1  0.96353797  0.25758714  0.30783689  1.0
  S  S4  1  0.95595690  0.24242711  0.64361206  1.0
  S  S4  1  0.94638268  0.24976123  0.98267039  1.0
  S  S4  1  0.94075607  0.59900508  0.29555786  1.0
  S  S4  1  0.95063548  0.56629241  0.64756224  1.0
  S  S4  1  0.96050211  0.57707134  0.95099213  1.0
  S  S4  1  0.95077959  0.93436832  0.27877581  1.0
  S  S4  1  0.93926178  0.91114024  0.62239547  1.0
  S  S4  1  0.94370464  0.87984824  0.98251249  1.0
  S  S5  1  0.11795161  0.22932896  0.22134411  1.0
  S  S5  1  0.12912064  0.24086323  0.54992823  1.0
  S  S5  1  0.11036578  0.25220377  0.85054353  1.0
  S  S5  1  0.13355672  0.57973149  0.19959953  1.0
  S  S5  1  0.10940944  0.60598121  0.56169421  1.0
  S  S5  1  0.12870326  0.59497098  0.85399085  1.0
  S  S5  1  0.12202135  0.91658097  0.21897827  1.0
  S  S5  1  0.12441805  0.90876662  0.54635427  1.0
  S  S5  1  0.12080811  0.88291887  0.87728741  1.0
  S  S5  1  0.44487397  0.23921893  0.18375434  1.0
  S  S5  1  0.44734140  0.25584121  0.50855483  1.0
  S  S5  1  0.45004627  0.25701780  0.89462216  1.0
  S  S5  1  0.43950821  0.57907937  0.20180894  1.0
  S  S5  1  0.45801353  0.57963164  0.55045263  1.0
  S  S5  1  0.43234710  0.56808301  0.86989690  1.0
  S  S5  1  0.43672809  0.90237610  0.18890939  1.0
  S  S5  1  0.45488532  0.89359719  0.53364937  1.0
  S  S5  1  0.45706131  0.91429464  0.85817326  1.0
  S  S5  1  0.78514288  0.24766246  0.22025429  1.0
  S  S5  1  0.77255264  0.24937161  0.53422761  1.0
  S  S5  1  0.77865112  0.21506318  0.86157079  1.0
  S  S5  1  0.78928980  0.59280111  0.20333046  1.0
  S  S5  1  0.77266538  0.58814333  0.52149661  1.0
  S  S5  1  0.78474111  0.58481177  0.84824590  1.0
  S  S5  1  0.77437444  0.92098646  0.19392032  1.0
  S  S5  1  0.77480855  0.90543797  0.52590203  1.0
  S  S5  1  0.79484721  0.91026552  0.86397092  1.0
  S  S6  1  0.21904572  0.06957138  0.10699508  1.0
  S  S6  1  0.20965797  0.08633969  0.47056033  1.0
  S  S6  1  0.22404428  0.08451055  0.80067662  1.0
  S  S6  1  0.21317440  0.42743027  0.12078047  1.0
  S  S6  1  0.20896107  0.42356641  0.44734936  1.0
  S  S6  1  0.23829195  0.41764000  0.80815150  1.0
  S  S6  1  0.21147365  0.74616396  0.12882673  1.0
  S  S6  1  0.21369173  0.75770167  0.46178720  1.0
  S  S6  1  0.22666598  0.78240473  0.79763748  1.0
  S  S6  1  0.55280065  0.08795075  0.16540024  1.0
  S  S6  1  0.55084567  0.07324613  0.44844116  1.0
  S  S6  1  0.55105089  0.07787759  0.83531049  1.0
  S  S6  1  0.56625924  0.40408076  0.12418608  1.0
  S  S6  1  0.55214713  0.43366766  0.47006494  1.0
  S  S6  1  0.54614805  0.41595021  0.79219714  1.0
  S  S6  1  0.55654617  0.74137271  0.12745941  1.0
  S  S6  1  0.56120105  0.74065079  0.44550340  1.0
  S  S6  1  0.55232372  0.74561388  0.81082327  1.0
  S  S6  1  0.88750815  0.08294496  0.13480254  1.0
  S  S6  1  0.87874405  0.08434747  0.48353365  1.0
  S  S6  1  0.87676723  0.08326766  0.81943408  1.0
  S  S6  1  0.88907198  0.43259990  0.12651648  1.0
  S  S6  1  0.86963400  0.41910813  0.47505779  1.0
  S  S6  1  0.89625244  0.43112363  0.81123713  1.0
  S  S6  1  0.89123499  0.74766598  0.11587950  1.0
  S  S6  1  0.88584615  0.76195563  0.47985836  1.0
  S  S6  1  0.89180425  0.74479521  0.79812760  1.0
  S  S7  1  0.05555561  0.07668361  0.02243978  1.0
  S  S7  1  0.05401266  0.09259177  0.36093967  1.0
  S  S7  1  0.04185517  0.07438031  0.70086136  1.0
  S  S7  1  0.05312686  0.41960197  0.03938470  1.0
  S  S7  1  0.05158168  0.41989178  0.36346426  1.0
  S  S7  1  0.06109122  0.43409493  0.67810473  1.0
  S  S7  1  0.04940954  0.75039818  0.02650524  1.0
  S  S7  1  0.06645111  0.75272501  0.35104011  1.0
  S  S7  1  0.05649595  0.75329713  0.70250389  1.0
  S  S7  1  0.39990886  0.08760157  0.02590480  1.0
  S  S7  1  0.36859805  0.08132081  0.38553973  1.0
  S  S7  1  0.38410811  0.05607714  0.68939002  1.0
  S  S7  1  0.39312620  0.42330799  0.01714290  1.0
  S  S7  1  0.38016329  0.41166930  0.35337117  1.0
  S  S7  1  0.36797903  0.42595779  0.71807386  1.0
  S  S7  1  0.37223261  0.76513479  0.02918325  1.0
  S  S7  1  0.39506022  0.75046177  0.36641482  1.0
  S  S7  1  0.38796546  0.74038673  0.71705447  1.0
  S  S7  1  0.70886970  0.07844112  0.37276656  1.0
  S  S7  1  0.71396331  0.09279408  0.72001517  1.0
  S  S7  1  0.72662475  0.39310865  0.03292302  1.0
  S  S7  1  0.72675902  0.40064490  0.37602390  1.0
  S  S7  1  0.72375352  0.40191836  0.71116481  1.0
  S  S7  1  0.72046895  0.75791363  0.01507699  1.0
  S  S7  1  0.71944919  0.72925560  0.32699365  1.0
  S  S7  1  0.71937174  0.76339171  0.70166636  1.0
  S  S8  1  0.01223877  0.24771815  0.22643169  1.0
  S  S8  1  0.01092070  0.25513092  0.56805508  1.0
  S  S8  1  0.01901183  0.25238456  0.91367949  1.0
  S  S8  1  0.02016067  0.57692395  0.25260770  1.0
  S  S8  1  0.00955104  0.58746443  0.56461467  1.0
  S  S8  1  0.00518928  0.58445111  0.87769557  1.0
  S  S8  1  0.01030161  0.89712080  0.25456612  1.0
  S  S8  1  0.02150397  0.90615439  0.58216536  1.0
  S  S8  1  0.02024781  0.92764761  0.91200416  1.0
  S  S8  1  0.35220968  0.24209915  0.24319157  1.0
  S  S8  1  0.34221353  0.24107151  0.57575595  1.0
  S  S8  1  0.34899158  0.26415719  0.91283268  1.0
  S  S8  1  0.35144110  0.59128227  0.28574801  1.0
  S  S8  1  0.33103987  0.57496278  0.59925294  1.0
  S  S8  1  0.34317112  0.59411149  0.91225839  1.0
  S  S8  1  0.36361606  0.90312339  0.26179772  1.0
  S  S8  1  0.36065716  0.90432355  0.58795887  1.0
  S  S8  1  0.33806670  0.91703366  0.90430732  1.0
  S  S8  1  0.65944154  0.25516194  0.24417551  1.0
  S  S8  1  0.69173981  0.25743619  0.61260002  1.0
  S  S8  1  0.68032397  0.24871595  0.90548759  1.0
  S  S8  1  0.67577579  0.55647015  0.23823532  1.0
  S  S8  1  0.66222802  0.58883353  0.55490391  1.0
  S  S8  1  0.67199216  0.57518817  0.90515133  1.0
  S  S8  1  0.67949048  0.92986226  0.23239641  1.0
  S  S8  1  0.68342833  0.94989496  0.58133263  1.0
  S  S8  1  0.67793159  0.90718621  0.90532460  1.0
  S  S9  1  0.17205965  0.25326898  0.25985859  1.0
  S  S9  1  0.16144287  0.24977419  0.60908438  1.0
  S  S9  1  0.17611258  0.24205577  0.90232151  1.0
  S  S9  1  0.16397416  0.59344892  0.25520129  1.0
  S  S9  1  0.18585684  0.60196598  0.60655331  1.0
  S  S9  1  0.17492060  0.58509604  0.91478786  1.0
  S  S9  1  0.17354011  0.92083793  0.24456687  1.0
  S  S9  1  0.16105238  0.90585998  0.58648552  1.0
  S  S9  1  0.19209193  0.91069310  0.93319824  1.0
  S  S9  1  0.51136628  0.26492249  0.27707378  1.0
  S  S9  1  0.52255288  0.22890146  0.59487790  1.0
  S  S9  1  0.51908131  0.25464244  0.93523540  1.0
  S  S9  1  0.51325217  0.57427104  0.23043586  1.0
  S  S9  1  0.50739529  0.61591969  0.58356439  1.0
  S  S9  1  0.49896272  0.59222511  0.93589121  1.0
  S  S9  1  0.52347768  0.92239738  0.27198391  1.0
  S  S9  1  0.52807795  0.90759599  0.57607735  1.0
  S  S9  1  0.50365930  0.91343287  0.94825565  1.0
  S  S9  1  0.85049372  0.25594624  0.22843893  1.0
  S  S9  1  0.84033243  0.22766432  0.61063832  1.0
  S  S9  1  0.85929316  0.25948551  0.90870911  1.0
  S  S9  1  0.85843097  0.58025181  0.23832224  1.0
  S  S9  1  0.83807580  0.57809933  0.59231012  1.0
  S  S9  1  0.84475756  0.56614445  0.94465909  1.0
  S  S9  1  0.84484690  0.90798194  0.27630916  1.0
  S  S9  1  0.83625363  0.89684687  0.61229262  1.0
  S  S9  1  0.86183704  0.91104403  0.92408218  1.0
  S  S10  1  0.14435933  0.08340016  0.06739358  1.0
  S  S10  1  0.15305025  0.08831305  0.39055615  1.0
  S  S10  1  0.15088960  0.06138552  0.73603279  1.0
  S  S10  1  0.15312259  0.41945285  0.07908138  1.0
  S  S10  1  0.16142097  0.39793251  0.38421403  1.0
  S  S10  1  0.15830112  0.39185726  0.74482848  1.0
  S  S10  1  0.14407953  0.76913749  0.07925909  1.0
  S  S10  1  0.15207654  0.76493850  0.39112387  1.0
  S  S10  1  0.14663291  0.73465103  0.72769847  1.0
  S  S10  1  0.48774184  0.08934358  0.09087643  1.0
  S  S10  1  0.47205096  0.08124216  0.39039244  1.0
  S  S10  1  0.48552527  0.11173467  0.74660239  1.0
  S  S10  1  0.49471721  0.44052371  0.09358785  1.0
  S  S10  1  0.48350652  0.40114276  0.40800744  1.0
  S  S10  1  0.48250981  0.39811679  0.74577008  1.0
  S  S10  1  0.48944561  0.77152603  0.06925541  1.0
  S  S10  1  0.48956405  0.74190259  0.42276771  1.0
  S  S10  1  0.48619647  0.73573229  0.74161320  1.0
  S  S10  1  0.82381596  0.08643942  0.09225676  1.0
  S  S10  1  0.80851831  0.07307912  0.41895421  1.0
  S  S10  1  0.81453216  0.08625931  0.70229437  1.0
  S  S10  1  0.84316434  0.41338482  0.09467607  1.0
  S  S10  1  0.81776355  0.42171258  0.43287817  1.0
  S  S10  1  0.83026660  0.41417893  0.73962326  1.0
  S  S10  1  0.82891671  0.77839015  0.07830859  1.0
  S  S10  1  0.83685016  0.74706255  0.42405516  1.0
  S  S10  1  0.82972869  0.74501174  0.72962598  1.0
  S  S11  1  0.33009673  0.07686552  0.07688620  1.0
  S  S11  1  0.31487587  0.07681617  0.43883057  1.0
  S  S11  1  0.32485201  0.09204123  0.76505207  1.0
  S  S11  1  0.31562570  0.42514878  0.11082146  1.0
  S  S11  1  0.32542995  0.42213793  0.41229956  1.0
  S  S11  1  0.32232906  0.40668624  0.75777405  1.0
  S  S11  1  0.30691905  0.73013557  0.08837825  1.0
  S  S11  1  0.31600345  0.75129935  0.42263120  1.0
  S  S11  1  0.65415120  0.09073867  0.08393012  1.0
  S  S11  1  0.65207415  0.10103755  0.42488373  1.0
  S  S11  1  0.65240890  0.08433732  0.75552995  1.0
  S  S11  1  0.64799610  0.40452297  0.07902543  1.0
  S  S11  1  0.66116301  0.40900219  0.42230184  1.0
  S  S11  1  0.65973038  0.41327929  0.76851588  1.0
  S  S11  1  0.64108004  0.74838758  0.09278917  1.0
  S  S11  1  0.65409252  0.72988783  0.44449236  1.0
  S  S11  1  0.64678881  0.75407662  0.75829680  1.0
  S  S11  1  0.99558457  0.10994998  0.07041527  1.0
  S  S11  1  0.98183413  0.08563415  0.74010504  1.0
  S  S11  1  0.99374138  0.42692855  0.10064147  1.0
  S  S11  1  0.98920178  0.43333283  0.40595026  1.0
  S  S11  1  0.98777639  0.40767716  0.77270802  1.0
  S  S11  1  0.97197926  0.74965828  0.09697785  1.0
  S  S11  1  0.97934985  0.74238073  0.42508463  1.0
  S  S11  1  0.99518009  0.73743239  0.74413948  1.0
  S  S12  1  0.34269864  0.42727853  0.32062824  1.0
  S  S12  1  0.27805679  0.51205608  0.15499317  1.0
  S  S12  1  0.26450610  0.51298182  0.48535717  1.0
  S  S12  1  0.26898409  0.52313274  0.80289561  1.0
  S  S12  1  0.28705702  0.86836045  0.44574338  1.0
  S  S12  1  0.27521193  0.83733293  0.80709592  1.0
  S  S12  1  0.60381089  0.17126156  0.15274735  1.0
  S  S12  1  0.60589156  0.17713607  0.46347456  1.0
  S  S12  1  0.60415015  0.18724287  0.79922019  1.0
  S  S12  1  0.58063240  0.51413885  0.11374599  1.0
  S  S12  1  0.59566264  0.83260220  0.11472149  1.0
  S  S12  1  0.61443351  0.84382135  0.79630177  1.0
  S  S12  1  0.94154811  0.17609078  0.17167648  1.0
  S  S12  1  0.93506394  0.19147911  0.48175156  1.0
  S  S12  1  0.01333134  0.08823818  0.65983709  1.0
  S  S12  1  0.86480507  0.69045657  0.93423519  1.0
  S  S12  1  0.92614521  0.53276888  0.45819183  1.0
  S  S12  1  0.10579995  0.34546314  0.78961214  1.0
  S  S12  1  0.92488485  0.82540445  0.13794086  1.0
  S  S12  1  0.92227880  0.83561214  0.46828384  1.0
  S  S12  1  0.91557748  0.85674504  0.76458877  1.0
  S  S13  1  0.26889108  0.31652595  0.14661135  1.0
  S  S13  1  0.26601137  0.33822163  0.46191605  1.0
  S  S13  1  0.27963311  0.31059714  0.80593985  1.0
  S  S13  1  0.28662667  0.64324562  0.14159327  1.0
  S  S13  1  0.27902773  0.64370213  0.76864648  1.0
  S  S13  1  0.27217702  0.99523607  0.10506025  1.0
  S  S13  1  0.27892009  0.98438307  0.42219432  1.0
  S  S13  1  0.59640973  0.31458369  0.13436492  1.0
  S  S13  1  0.59753063  0.30117964  0.50125861  1.0
  S  S13  1  0.60330507  0.31094294  0.80329395  1.0
  S  S13  1  0.60760907  0.64700679  0.13165414  1.0
  S  S13  1  0.59879162  0.64467674  0.46086506  1.0
  S  S13  1  0.60701906  0.64063648  0.81039274  1.0
  S  S13  1  0.61595664  0.99002977  0.13126092  1.0
  S  S13  1  0.59076735  0.00365823  0.44124043  1.0
  S  S13  1  0.61132721  0.99303095  0.79896987  1.0
  S  S13  1  0.93534525  0.29706367  0.14269331  1.0
  S  S13  1  0.94269135  0.30614843  0.46808719  1.0
  S  S13  1  0.93228647  0.65685062  0.13378652  1.0
  S  S13  1  0.92400176  0.64628523  0.47430375  1.0
  S  S13  1  0.94380724  0.63962179  0.84248489  1.0
  S  S13  1  0.92177062  0.97920775  0.13594322  1.0
  S  S13  1  0.93586303  0.97107436  0.47795146  1.0
  S  S13  1  0.94062097  0.98665025  0.80938904  1.0
  S  S14  1  0.10067402  0.29972046  0.01765667  1.0
  S  S14  1  0.10162309  0.31930307  0.36164043  1.0
  S  S14  1  0.10655360  0.30322424  0.70039328  1.0
  S  S14  1  0.10877503  0.65132478  0.00842592  1.0
  S  S14  1  0.09620006  0.66284287  0.38545318  1.0
  S  S14  1  0.11650489  0.64962579  0.68370774  1.0
  S  S14  1  0.10334477  0.00646423  0.04182247  1.0
  S  S14  1  0.10247371  0.99371557  0.34195791  1.0
  S  S14  1  0.09841176  0.97287458  0.70370620  1.0
  S  S14  1  0.44366429  0.31461829  0.01598762  1.0
  S  S14  1  0.43736901  0.31347946  0.34969046  1.0
  S  S14  1  0.44037585  0.64287341  0.00330549  1.0
  S  S14  1  0.42634981  0.63322539  0.36674438  1.0
  S  S14  1  0.43941002  0.65319993  0.70775385  1.0
  S  S14  1  0.44745087  0.97886016  0.03600856  1.0
  S  S14  1  0.42439035  0.00284235  0.67569262  1.0
  S  S14  1  0.76420872  0.31134588  0.00410436  1.0
  S  S14  1  0.77113771  0.32200271  0.35960495  1.0
  S  S14  1  0.75805124  0.34353319  0.70500784  1.0
  S  S14  1  0.79278436  0.64293703  0.04501859  1.0
  S  S14  1  0.77735051  0.64919771  0.38575676  1.0
  S  S14  1  0.76726618  0.64774206  0.63856367  1.0
  S  S14  1  0.77426993  0.96993830  0.02036781  1.0
  S  S14  1  0.76232814  0.98161048  0.70328640  1.0
  S  S15  1  0.23349394  0.15112489  0.32561883  1.0
  S  S15  1  0.22606482  0.14691028  0.65294940  1.0
  S  S15  1  0.24156738  0.16255011  0.95225367  1.0
  S  S15  1  0.23264998  0.48739867  0.32116513  1.0
  S  S15  1  0.47436683  0.22972124  0.76127856  1.0
  S  S15  1  0.20715285  0.47512534  0.95200374  1.0
  S  S15  1  0.22042416  0.80720655  0.32310690  1.0
  S  S15  1  0.23596066  0.81633702  0.65582356  1.0
  S  S15  1  0.22029463  0.80481968  0.98474462  1.0
  S  S15  1  0.56763975  0.14481615  0.28135635  1.0
  S  S15  1  0.57461217  0.13180369  0.62752164  1.0
  S  S15  1  0.57380614  0.16702014  0.96942655  1.0
  S  S15  1  0.56944870  0.47294615  0.30785689  1.0
  S  S15  1  0.56334288  0.46673875  0.65025666  1.0
  S  S15  1  0.57360672  0.49513338  0.96981550  1.0
  S  S15  1  0.55451092  0.79130261  0.30653294  1.0
  S  S15  1  0.57146882  0.83151331  0.65063474  1.0
  S  S15  1  0.56641212  0.83485330  0.97733288  1.0
  S  S15  1  0.89114028  0.15927455  0.28640384  1.0
  S  S15  1  0.90029320  0.13692611  0.61732889  1.0
  S  S15  1  0.90776805  0.16428501  0.97683347  1.0
  S  S15  1  0.89653193  0.79030376  0.30274318  1.0
  S  S15  1  0.89957897  0.81289354  0.62565775  1.0
  S  S15  1  0.90781811  0.81866642  0.97806475  1.0
  S  S16  1  0.06890772  0.00174818  0.19919037  1.0
  S  S16  1  0.07344659  0.03606904  0.86335257  1.0
  S  S16  1  0.06048689  0.35054006  0.20001440  1.0
  S  S16  1  0.07400500  0.33514290  0.52479350  1.0
  S  S16  1  0.04936007  0.33402763  0.87629577  1.0
  S  S16  1  0.07136584  0.67375614  0.54716983  1.0
  S  S16  1  0.07171541  0.70414087  0.86383967  1.0
  S  S16  1  0.39396848  0.00951581  0.17524606  1.0
  S  S16  1  0.40619863  0.99549815  0.54926484  1.0
  S  S16  1  0.49277425  0.25559597  0.83085690  1.0
  S  S16  1  0.38994534  0.35860669  0.22566362  1.0
  S  S16  1  0.39254462  0.34769455  0.52612739  1.0
  S  S16  1  0.40078035  0.34947566  0.89152416  1.0
  S  S16  1  0.40534033  0.66617568  0.53787936  1.0
  S  S16  1  0.40842754  0.67457919  0.85880481  1.0
  S  S16  1  0.72732620  0.01256237  0.16287118  1.0
  S  S16  1  0.73894793  0.16760934  0.30409906  1.0
  S  S16  1  0.72402995  0.33944581  0.55716975  1.0
  S  S16  1  0.71692412  0.33333229  0.84587189  1.0
  S  S16  1  0.72268383  0.66896249  0.20443200  1.0
  S  S17  1  0.24308917  0.01212770  0.30318047  1.0
  S  S17  1  0.23242766  0.01291874  0.97366758  1.0
  S  S17  1  0.23142894  0.33937395  0.32902127  1.0
  S  S17  1  0.23951513  0.36174512  0.65386360  1.0
  S  S17  1  0.21600363  0.35898874  0.98114215  1.0
  S  S17  1  0.21633787  0.68158646  0.64152046  1.0
  S  S17  1  0.57631440  0.02275153  0.28983954  1.0
  S  S17  1  0.57657292  0.01446603  0.63311952  1.0
  S  S17  1  0.55954644  0.33367737  0.29150697  1.0
  S  S17  1  0.56837307  0.34563202  0.64071383  1.0
  S  S17  1  0.55463661  0.34716983  0.97359125  1.0
  S  S17  1  0.56574512  0.66270320  0.28302708  1.0
  S  S17  1  0.40977935  0.67460856  0.80331183  1.0
  S  S17  1  0.56174483  0.69968182  0.99171812  1.0
  S  S17  1  0.90363008  0.00375376  0.30302329  1.0
  S  S17  1  0.90052548  0.00543294  0.95640897  1.0
  S  S17  1  0.90998634  0.34360659  0.33035561  1.0
  S  S17  1  0.90667608  0.35995269  0.64141703  1.0
  S  S17  1  0.88164323  0.35670761  0.00183411  1.0
  S  S17  1  0.90146900  0.68247792  0.33193995  1.0
  S  S17  1  0.89229119  0.68088346  0.63694317  1.0
  S  S17  1  0.90320457  0.66042253  0.97786544  1.0
  S  S18  1  0.27760903  0.24671909  0.88078796  1.0
  S  S18  1  0.00533491  0.52605564  0.98773505  1.0
  S  S18  1  0.11411449  0.51289589  0.32817326  1.0
  S  S18  1  0.08726364  0.52048348  0.69904397  1.0
  S  S18  1  0.09664571  0.82586338  0.34634709  1.0
  S  S18  1  0.43829561  0.19267236  0.03546149  1.0
  S  S18  1  0.43963057  0.17602335  0.39128256  1.0
  S  S18  1  0.42906112  0.17209190  0.68798814  1.0
  S  S18  1  0.44204883  0.50129283  0.03158433  1.0
  S  S18  1  0.43761440  0.50683918  0.37017075  1.0
  S  S18  1  0.42914795  0.50034114  0.69766090  1.0
  S  S18  1  0.42372356  0.82116941  0.37140657  1.0
  S  S18  1  0.78426802  0.18365579  0.35657816  1.0
  S  S18  1  0.77720579  0.16835387  0.68174046  1.0
  S  S18  1  0.77675446  0.51404331  0.38010023  1.0
  S  S18  1  0.75305887  0.49689039  0.69626752  1.0
  S  S18  1  0.77377905  0.86021393  0.36624089  1.0
  S  S19  1  0.06470875  0.14712544  0.22276381  1.0
  S  S19  1  0.05187437  0.14824483  0.50590163  1.0
  S  S19  1  0.06691622  0.14011525  0.87485405  1.0
  S  S19  1  0.06716204  0.50339298  0.19028228  1.0
  S  S19  1  0.98266921  0.24051340  0.74529579  1.0
  S  S19  1  0.06334654  0.80081729  0.17286917  1.0
  S  S19  1  0.06745772  0.81762246  0.51967817  1.0
  S  S19  1  0.05670127  0.80855393  0.86375578  1.0
  S  S19  1  0.39950286  0.12727726  0.21911923  1.0
  S  S19  1  0.49029678  0.05497469  0.76774419  1.0
  S  S19  1  0.40523913  0.14647928  0.83990562  1.0
  S  S19  1  0.40424707  0.48313145  0.20500209  1.0
  S  S19  1  0.41524631  0.48850702  0.51450622  1.0
  S  S19  1  0.39260090  0.47040152  0.87171815  1.0
  S  S19  1  0.38909322  0.81364650  0.17504557  1.0
  S  S19  1  0.39287837  0.80830668  0.48197034  1.0
  S  S19  1  0.23129308  0.74944393  0.01686659  1.0
  S  S19  1  0.74601227  0.16439576  0.17811797  1.0
  S  S19  1  0.73610777  0.16787598  0.53152391  1.0
  S  S19  1  0.73214066  0.15685022  0.82861748  1.0
  S  S19  1  0.72757851  0.48315965  0.21940227  1.0
  S  S19  1  0.73191007  0.48244543  0.52789402  1.0
  S  S19  1  0.73945125  0.48010069  0.85154967  1.0
  S  S19  1  0.71963443  0.83057733  0.20475720  1.0
  S  S19  1  0.72950166  0.82173059  0.52022040  1.0
  S  S19  1  0.72751960  0.81132913  0.85788327  1.0
