# generated using pymatgen
data_Li3PS4
_symmetry_space_group_name_H-M   'P 1'
_cell_length_a   12.01870000
_cell_length_b   8.21850000
_cell_length_c   6.11990000
_cell_angle_alpha   90.00000000
_cell_angle_beta   90.00000000
_cell_angle_gamma   90.00000000
_symmetry_Int_Tables_number   1
_chemical_formula_structural   Li3PS4
_chemical_formula_sum   'Li12 P4 S16'
_cell_volume   604.49732045
_cell_formula_units_Z   4
loop_
 _symmetry_equiv_pos_site_id
 _symmetry_equiv_pos_as_xyz
  1  'x, y, z'
loop_
 _atom_site_type_symbol
 _atom_site_label
 _atom_site_symmetry_multiplicity
 _atom_site_fract_x
 _atom_site_fract_y
 _atom_site_fract_z
 _atom_site_occupancy
  P  P0  1  0.91270000  0.75000000  0.58150000  1
  P  P1  1  0.41270000  0.75000000  0.91850000  1
  P  P2  1  0.58730000  0.25000000  0.08150000  1
  P  P3  1  0.08730000  0.25000000  0.41850000  1
  S  S4  1  0.84540000  0.75000000  0.90740000  1
  S  S5  1  0.34540000  0.75000000  0.59260000  1
  S  S6  1  0.65460000  0.25000000  0.40740000  1
  S  S7  1  0.15460000  0.25000000  0.09260000  1
  S  S8  1  0.03830000  0.75000000  0.72550000  1
  S  S9  1  0.53830000  0.75000000  0.77450000  1
  S  S10  1  0.46170000  0.25000000  0.22550000  1
  S  S11  1  0.96170000  0.25000000  0.27450000  1
  S  S12  1  0.81260000  0.54180000  0.41190000  1
  S  S13  1  0.81260000  0.95820000  0.41190000  1
  S  S14  1  0.31260000  0.95820000  0.08810000  1
  S  S15  1  0.68740000  0.45820000  0.91190000  1
  S  S16  1  0.18740000  0.04180000  0.58810000  1
  S  S17  1  0.68740000  0.04180000  0.91190000  1
  S  S18  1  0.31260000  0.54180000  0.08810000  1
  S  S19  1  0.18740000  0.45820000  0.58810000  1
  Li  Li20  1  0.65790000  0.53450000  0.95920000  1
  Li  Li21  1  0.65790000  0.96550000  0.95920000  1
  Li  Li22  1  0.15790000  0.96550000  0.54080000  1
  Li  Li23  1  0.84210000  0.46550000  0.45920000  1
  Li  Li24  1  0.34210000  0.03450000  0.04080000  1
  Li  Li25  1  0.84210000  0.03450000  0.45920000  1
  Li  Li26  1  0.15790000  0.53450000  0.54080000  1
  Li  Li27  1  0.34210000  0.46550000  0.04080000  1
  Li  Li28  1  0.00000000  0.50000000  0.50000000  1
  Li  Li29  1  0.00000000  0.00000000  0.50000000  1
  Li  Li30  1  0.50000000  0.00000000  0.00000000  1
  Li  Li31  1  0.50000000  0.50000000  0.00000000  1
