data_image0
_chemical_formula_structural       Li6P2NO4NO2Li6P2O8Li6P2O8Li6P2O8Li5P2O8Li6P2O3NO3Li6P2O3NO3Li6P2ONO5
_chemical_formula_sum              "Li47 P16 N5 O56"
_cell_length_a       9.844896
_cell_length_b       10.592804
_cell_length_c       12.352272
_cell_angle_alpha    90.0
_cell_angle_beta     90.0
_cell_angle_gamma    90.0

_space_group_name_H-M_alt    "P 1"
_space_group_IT_number       1

loop_
  _space_group_symop_operation_xyz
  'x, y, z'

loop_
  _atom_site_type_symbol
  _atom_site_label
  _atom_site_symmetry_multiplicity
  _atom_site_fract_x
  _atom_site_fract_y
  _atom_site_fract_z
  _atom_site_occupancy
  Li  Li1       1.0  0.2547085  0.42225999999999997  0.0  1.0000
  Li  Li2       1.0  0.0047085  0.07773999999999999  0.25  1.0000
  Li  Li3       1.0  0.25418150000000006  0.163217  0.3735635  1.0000
  Li  Li4       1.0  0.004181500000000001  0.336783  0.3764364999999999  1.0000
  Li  Li5       1.0  0.004181500000000001  0.336783  0.1235635  1.0000
  Li  Li6       1.0  0.25418150000000006  0.163217  0.1264365  1.0000
  P   P1        1.0  0.25071  0.41213049999999996  0.25  1.0000
  P   P2        1.0  0.00071  0.08786949999999999  0.0  1.0000
  N   N1        1.0  0.053505000000000004  0.1567545  0.10356899999999997  1.0000
  O   O1        1.0  0.301063  0.051754  0.25  1.0000
  O   O2        1.0  0.0925955  0.4091979999999999  0.25  1.0000
  O   O3        1.0  0.3425955  0.09080199999999998  0.0  1.0000
  O   O4        1.0  0.303505  0.3432455  0.353569  1.0000
  N   N2        1.0  0.053505000000000004  0.1567545  0.3964309999999999  1.0000
  O   O5        1.0  0.05106300000000001  0.448246  0.0  1.0000
  O   O6        1.0  0.303505  0.3432455  0.146431  1.0000
  Li  Li7       1.0  0.2547085  0.42225999999999997  0.5  1.0000
  Li  Li8       1.0  0.0047085  0.07773999999999999  0.75  1.0000
  Li  Li9       1.0  0.25418150000000006  0.163217  0.8735634999999999  1.0000
  Li  Li10      1.0  0.004181500000000001  0.336783  0.8764364999999998  1.0000
  Li  Li11      1.0  0.004181500000000001  0.336783  0.6235634999999999  1.0000
  Li  Li12      1.0  0.25418150000000006  0.163217  0.6264365  1.0000
  P   P3        1.0  0.25071  0.41213049999999996  0.75  1.0000
  P   P4        1.0  0.00071  0.08786949999999999  0.5  1.0000
  O   O7        1.0  0.053505000000000004  0.1567545  0.6035689999999999  1.0000
  O   O8        1.0  0.301063  0.051754  0.75  1.0000
  O   O9        1.0  0.0925955  0.4091979999999999  0.75  1.0000
  O   O10       1.0  0.3425955  0.09080199999999998  0.5  1.0000
  O   O11       1.0  0.303505  0.3432455  0.853569  1.0000
  O   O12       1.0  0.053505000000000004  0.1567545  0.8964309999999999  1.0000
  O   O13       1.0  0.05106300000000001  0.448246  0.5  1.0000
  O   O14       1.0  0.303505  0.3432455  0.646431  1.0000
  Li  Li13      1.0  0.2547085  0.9222599999999999  0.0  1.0000
  Li  Li14      1.0  0.0047085  0.5777399999999999  0.25  1.0000
  Li  Li15      1.0  0.25418150000000006  0.6632170000000001  0.3735635  1.0000
  Li  Li16      1.0  0.004181500000000001  0.8367829999999999  0.3764364999999999  1.0000
  Li  Li17      1.0  0.004181500000000001  0.8367829999999999  0.1235635  1.0000
  Li  Li18      1.0  0.25418150000000006  0.6632170000000001  0.1264365  1.0000
  P   P5        1.0  0.25071  0.9121304999999998  0.25  1.0000
  P   P6        1.0  0.00071  0.5878695  0.0  1.0000
  O   O15       1.0  0.053505000000000004  0.6567544999999999  0.10356899999999997  1.0000
  O   O16       1.0  0.301063  0.551754  0.25  1.0000
  O   O17       1.0  0.0925955  0.9091979999999998  0.25  1.0000
  O   O18       1.0  0.3425955  0.5908019999999999  0.0  1.0000
  O   O19       1.0  0.303505  0.8432455  0.353569  1.0000
  O   O20       1.0  0.053505000000000004  0.6567544999999999  0.3964309999999999  1.0000
  O   O21       1.0  0.05106300000000001  0.9482459999999999  0.0  1.0000
  O   O22       1.0  0.303505  0.8432455  0.146431  1.0000
  Li  Li19      1.0  0.2547085  0.9222599999999999  0.5  1.0000
  Li  Li20      1.0  0.0047085  0.5777399999999999  0.75  1.0000
  Li  Li21      1.0  0.25418150000000006  0.6632170000000001  0.8735634999999999  1.0000
  Li  Li22      1.0  0.004181500000000001  0.8367829999999999  0.8764364999999998  1.0000
  Li  Li23      1.0  0.004181500000000001  0.8367829999999999  0.6235634999999999  1.0000
  Li  Li24      1.0  0.25418150000000006  0.6632170000000001  0.6264365  1.0000
  P   P7        1.0  0.25071  0.9121304999999998  0.75  1.0000
  P   P8        1.0  0.00071  0.5878695  0.5  1.0000
  O   O23       1.0  0.053505000000000004  0.6567544999999999  0.6035689999999999  1.0000
  O   O24       1.0  0.301063  0.551754  0.75  1.0000
  O   O25       1.0  0.0925955  0.9091979999999998  0.75  1.0000
  O   O26       1.0  0.3425955  0.5908019999999999  0.5  1.0000
  O   O27       1.0  0.303505  0.8432455  0.853569  1.0000
  O   O28       1.0  0.053505000000000004  0.6567544999999999  0.8964309999999999  1.0000
  O   O29       1.0  0.05106300000000001  0.9482459999999999  0.5  1.0000
  O   O30       1.0  0.303505  0.8432455  0.646431  1.0000
  Li  Li25      1.0  0.5047085  0.07773999999999999  0.25  1.0000
  Li  Li26      1.0  0.7541815000000001  0.163217  0.3735635  1.0000
  Li  Li27      1.0  0.5041815000000001  0.336783  0.3764364999999999  1.0000
  Li  Li28      1.0  0.5041815000000001  0.336783  0.1235635  1.0000
  Li  Li29      1.0  0.7541815000000001  0.163217  0.1264365  1.0000
  P   P9        1.0  0.75071  0.41213049999999996  0.25  1.0000
  P   P10       1.0  0.50071  0.08786949999999999  0.0  1.0000
  O   O31       1.0  0.553505  0.1567545  0.10356899999999997  1.0000
  O   O32       1.0  0.8010630000000001  0.051754  0.25  1.0000
  O   O33       1.0  0.5925955  0.4091979999999999  0.25  1.0000
  O   O34       1.0  0.8425954999999999  0.09080199999999998  0.0  1.0000
  O   O35       1.0  0.803505  0.3432455  0.353569  1.0000
  O   O36       1.0  0.553505  0.1567545  0.3964309999999999  1.0000
  O   O37       1.0  0.5510630000000001  0.448246  0.0  1.0000
  O   O38       1.0  0.803505  0.3432455  0.146431  1.0000
  Li  Li30      1.0  0.7547085  0.42225999999999997  0.5  1.0000
  Li  Li31      1.0  0.5047085  0.07773999999999999  0.75  1.0000
  Li  Li32      1.0  0.7541815000000001  0.163217  0.8735634999999999  1.0000
  Li  Li33      1.0  0.5041815000000001  0.336783  0.8764364999999998  1.0000
  Li  Li34      1.0  0.5041815000000001  0.336783  0.6235634999999999  1.0000
  Li  Li35      1.0  0.7541815000000001  0.163217  0.6264365  1.0000
  P   P11       1.0  0.75071  0.41213049999999996  0.75  1.0000
  P   P12       1.0  0.50071  0.08786949999999999  0.5  1.0000
  O   O39       1.0  0.553505  0.1567545  0.6035689999999999  1.0000
  O   O40       1.0  0.8010630000000001  0.051754  0.75  1.0000
  O   O41       1.0  0.8425954999999999  0.09080199999999998  0.5  1.0000
  N   N3        1.0  0.803505  0.3432455  0.853569  1.0000
  O   O42       1.0  0.553505  0.1567545  0.8964309999999999  1.0000
  O   O43       1.0  0.5510630000000001  0.448246  0.5  1.0000
  O   O44       1.0  0.803505  0.3432455  0.646431  1.0000
  Li  Li36      1.0  0.7547085  0.9222599999999999  0.0  1.0000
  Li  Li37      1.0  0.5047085  0.5777399999999999  0.25  1.0000
  Li  Li38      1.0  0.7541815000000001  0.6632170000000001  0.3735635  1.0000
  Li  Li39      1.0  0.5041815000000001  0.8367829999999999  0.3764364999999999  1.0000
  Li  Li40      1.0  0.5041815000000001  0.8367829999999999  0.1235635  1.0000
  Li  Li41      1.0  0.7541815000000001  0.6632170000000001  0.1264365  1.0000
  P   P13       1.0  0.75071  0.9121304999999998  0.25  1.0000
  P   P14       1.0  0.50071  0.5878695  0.0  1.0000
  O   O45       1.0  0.553505  0.6567544999999999  0.10356899999999997  1.0000
  O   O46       1.0  0.8010630000000001  0.551754  0.25  1.0000
  O   O47       1.0  0.8425954999999999  0.5908019999999999  0.0  1.0000
  N   N4        1.0  0.803505  0.8432455  0.353569  1.0000
  O   O48       1.0  0.553505  0.6567544999999999  0.3964309999999999  1.0000
  O   O49       1.0  0.5510630000000001  0.9482459999999999  0.0  1.0000
  O   O50       1.0  0.803505  0.8432455  0.146431  1.0000
  Li  Li42      1.0  0.7547085  0.9222599999999999  0.5  1.0000
  Li  Li43      1.0  0.5047085  0.5777399999999999  0.75  1.0000
  Li  Li44      1.0  0.7541815000000001  0.6632170000000001  0.8735634999999999  1.0000
  Li  Li45      1.0  0.5041815000000001  0.8367829999999999  0.8764364999999998  1.0000
  Li  Li46      1.0  0.5041815000000001  0.8367829999999999  0.6235634999999999  1.0000
  Li  Li47      1.0  0.7541815000000001  0.6632170000000001  0.6264365  1.0000
  P   P15       1.0  0.75071  0.9121304999999998  0.75  1.0000
  P   P16       1.0  0.50071  0.5878695  0.5  1.0000
  O   O51       1.0  0.553505  0.6567544999999999  0.6035689999999999  1.0000
  N   N5        1.0  0.5925955  0.9091979999999998  0.75  1.0000
  O   O52       1.0  0.8425954999999999  0.5908019999999999  0.5  1.0000
  O   O53       1.0  0.803505  0.8432455  0.853569  1.0000
  O   O54       1.0  0.553505  0.6567544999999999  0.8964309999999999  1.0000
  O   O55       1.0  0.5510630000000001  0.9482459999999999  0.5  1.0000
  O   O56       1.0  0.803505  0.8432455  0.646431  1.0000
